------------------------------------------------------------------------
General information
------------------------------------------------------------------------
Input file: 2M_40mis_28d_cpmg.int
Output file: 2M_40mis_28d_cpmg.out
Selected analyzing methods: ['brd', 'contin', 'nnls', 'discrete']
Exp. x range: 0.00010016-0.181546
Minimum T  : 0.00010016
Maximum T  : 0.181546
Exp.  points: 2048
Fitting x range: 0.00010016-0.181546
Minimum T  : 0.00010016
Maximum T  : 0.181546
Fitting  points: 2048
Grid points: 400
Grid spaces: log

# Decay data (EXPERIMENTAL)
           time      intensity
   1.001600e-04   5.671664e+01
   1.888000e-04   5.073490e+01
   2.774400e-04   4.778554e+01
   3.660800e-04   4.396699e+01
   4.547200e-04   4.159383e+01
   5.433600e-04   3.902046e+01
   6.320000e-04   3.716490e+01
   7.206400e-04   3.505054e+01
   8.092800e-04   3.361981e+01
   8.979200e-04   3.195469e+01
   9.865600e-04   3.077299e+01
   1.075200e-03   2.921041e+01
   1.163840e-03   2.829728e+01
   1.252480e-03   2.724254e+01
   1.341120e-03   2.624152e+01
   1.429760e-03   2.511353e+01
   1.518400e-03   2.453245e+01
   1.607040e-03   2.356072e+01
   1.695680e-03   2.284291e+01
   1.784320e-03   2.211045e+01
   1.872960e-03   2.153425e+01
   1.961600e-03   2.078715e+01
   2.050240e-03   2.015723e+01
   2.138880e-03   1.953709e+01
   2.227520e-03   1.899507e+01
   2.316160e-03   1.845305e+01
   2.404800e-03   1.803311e+01
   2.493440e-03   1.754480e+01
   2.582080e-03   1.709068e+01
   2.670720e-03   1.664144e+01
   2.759360e-03   1.628986e+01
   2.848000e-03   1.591875e+01
   2.936640e-03   1.547927e+01
   3.025280e-03   1.519117e+01
   3.113920e-03   1.484936e+01
   3.202560e-03   1.431222e+01
   3.291200e-03   1.412178e+01
   3.379840e-03   1.377509e+01
   3.468480e-03   1.348210e+01
   3.557120e-03   1.319889e+01
   3.645760e-03   1.296938e+01
   3.734400e-03   1.265198e+01
   3.823040e-03   1.236877e+01
   3.911680e-03   1.212950e+01
   4.000320e-03   1.204160e+01
   4.088960e-03   1.173885e+01
   4.177600e-03   1.143122e+01
   4.266240e-03   1.125543e+01
   4.354880e-03   1.105034e+01
   4.443520e-03   1.085014e+01
   4.532160e-03   1.065482e+01
   4.620800e-03   1.038625e+01
   4.709440e-03   1.037648e+01
   4.798080e-03   1.006397e+01
   4.886720e-03   9.810049e+00
   4.975360e-03   9.722154e+00
   5.064000e-03   9.570780e+00
   5.152640e-03   9.365692e+00
   5.241280e-03   9.233849e+00
   5.329920e-03   8.955515e+00
   5.418560e-03   8.984814e+00
   5.507200e-03   8.730895e+00
   5.595840e-03   8.672298e+00
   5.684480e-03   8.569754e+00
   5.773120e-03   8.315836e+00
   5.861760e-03   8.140046e+00
   5.950400e-03   8.135163e+00
   6.039040e-03   7.900776e+00
   6.127680e-03   7.861712e+00
   6.216320e-03   7.798232e+00
   6.304960e-03   7.593144e+00
   6.393600e-03   7.412471e+00
   6.482240e-03   7.246448e+00
   6.570880e-03   7.339226e+00
   6.659520e-03   7.129254e+00
   6.748160e-03   6.982763e+00
   6.836800e-03   6.972997e+00
   6.925440e-03   6.792324e+00
   7.014080e-03   6.831388e+00
   7.102720e-03   6.680014e+00
   7.191360e-03   6.655598e+00
   7.280000e-03   6.470042e+00
   7.368640e-03   6.406563e+00
   7.457280e-03   6.333317e+00
   7.545920e-03   6.250305e+00
   7.634560e-03   6.089165e+00
   7.723200e-03   6.167293e+00
   7.811840e-03   5.976854e+00
   7.900480e-03   5.937790e+00
   7.989120e-03   5.840129e+00
   8.077760e-03   5.771766e+00
   8.166400e-03   5.625275e+00
   8.255040e-03   5.508081e+00
   8.343680e-03   5.591093e+00
   8.432320e-03   5.547146e+00
   8.520960e-03   5.410420e+00
   8.609600e-03   5.434836e+00
   8.698240e-03   5.439719e+00
   8.786880e-03   5.224864e+00
   8.875520e-03   5.205332e+00
   8.964160e-03   5.156502e+00
   9.052800e-03   5.132087e+00
   9.141440e-03   5.034426e+00
   9.230080e-03   4.961180e+00
   9.318720e-03   4.883051e+00
   9.407360e-03   4.780507e+00
   9.496000e-03   4.702378e+00
   9.584640e-03   4.765858e+00
   9.673280e-03   4.585185e+00
   9.761920e-03   4.516822e+00
   9.850560e-03   4.609600e+00
   9.939200e-03   4.443576e+00
   1.002784e-02   4.492407e+00
   1.011648e-02   4.458225e+00
   1.020512e-02   4.350798e+00
   1.029376e-02   4.238488e+00
   1.038240e-02   4.297085e+00
   1.047104e-02   4.214073e+00
   1.055968e-02   4.204307e+00
   1.064832e-02   4.072464e+00
   1.073696e-02   4.018751e+00
   1.082560e-02   4.023634e+00
   1.091424e-02   4.023634e+00
   1.100288e-02   4.018751e+00
   1.109152e-02   3.950388e+00
   1.118016e-02   3.862493e+00
   1.126880e-02   3.886909e+00
   1.135744e-02   3.774598e+00
   1.144608e-02   3.701353e+00
   1.153472e-02   3.652522e+00
   1.162336e-02   3.755066e+00
   1.171200e-02   3.486498e+00
   1.180064e-02   3.491381e+00
   1.188928e-02   3.476732e+00
   1.197792e-02   3.447434e+00
   1.206656e-02   3.535329e+00
   1.215520e-02   3.496264e+00
   1.224384e-02   3.423019e+00
   1.233248e-02   3.437668e+00
   1.242112e-02   3.325358e+00
   1.250976e-02   3.222814e+00
   1.259840e-02   3.364422e+00
   1.268704e-02   3.256995e+00
   1.277568e-02   3.305825e+00
   1.286432e-02   3.281410e+00
   1.295296e-02   3.159334e+00
   1.304160e-02   3.037258e+00
   1.313024e-02   3.081205e+00
   1.321888e-02   3.134919e+00
   1.330752e-02   2.968895e+00
   1.339616e-02   2.881000e+00
   1.348480e-02   2.871234e+00
   1.357344e-02   2.900532e+00
   1.366208e-02   2.949363e+00
   1.375072e-02   2.895649e+00
   1.383936e-02   2.885883e+00
   1.392800e-02   2.822403e+00
   1.401664e-02   2.832170e+00
   1.410528e-02   2.768690e+00
   1.419392e-02   2.714976e+00
   1.428256e-02   2.817520e+00
   1.437120e-02   2.661263e+00
   1.445984e-02   2.695444e+00
   1.454848e-02   2.597783e+00
   1.463712e-02   2.612432e+00
   1.472576e-02   2.622198e+00
   1.481440e-02   2.495239e+00
   1.490304e-02   2.612432e+00
   1.499168e-02   2.553836e+00
   1.508032e-02   2.475707e+00
   1.516896e-02   2.509888e+00
   1.525760e-02   2.514771e+00
   1.534624e-02   2.397578e+00
   1.543488e-02   2.597783e+00
   1.552352e-02   2.436642e+00
   1.561216e-02   2.319449e+00
   1.570080e-02   2.348747e+00
   1.578944e-02   2.363397e+00
   1.587808e-02   2.329215e+00
   1.596672e-02   2.397578e+00
   1.605536e-02   2.319449e+00
   1.614400e-02   2.299917e+00
   1.623264e-02   2.285268e+00
   1.632128e-02   2.221788e+00
   1.640992e-02   2.197373e+00
   1.649856e-02   2.295034e+00
   1.658720e-02   2.109478e+00
   1.667584e-02   2.148542e+00
   1.676448e-02   2.192490e+00
   1.685312e-02   2.124127e+00
   1.694176e-02   2.197373e+00
   1.703040e-02   2.129010e+00
   1.711904e-02   2.080180e+00
   1.720768e-02   2.168075e+00
   1.729632e-02   2.006934e+00
   1.738496e-02   2.065531e+00
   1.747360e-02   2.080180e+00
   1.756224e-02   2.002051e+00
   1.765088e-02   2.080180e+00
   1.773952e-02   1.865325e+00
   1.782816e-02   1.914156e+00
   1.791680e-02   1.904390e+00
   1.800544e-02   1.972753e+00
   1.809408e-02   1.987402e+00
   1.818272e-02   1.894624e+00
   1.827136e-02   1.836027e+00
   1.836000e-02   1.728600e+00
   1.844864e-02   1.826261e+00
   1.853728e-02   1.826261e+00
   1.862592e-02   1.845793e+00
   1.871456e-02   1.840910e+00
   1.880320e-02   1.884858e+00
   1.889184e-02   1.889741e+00
   1.898048e-02   1.777431e+00
   1.906912e-02   1.733483e+00
   1.915776e-02   1.782314e+00
   1.924640e-02   1.753015e+00
   1.933504e-02   1.762781e+00
   1.942368e-02   1.718834e+00
   1.951232e-02   1.591875e+00
   1.960096e-02   1.753015e+00
   1.968960e-02   1.567459e+00
   1.977824e-02   1.728600e+00
   1.986688e-02   1.606524e+00
   1.995552e-02   1.645588e+00
   2.004416e-02   1.621173e+00
   2.013280e-02   1.723717e+00
   2.022144e-02   1.494214e+00
   2.031008e-02   1.557693e+00
   2.039872e-02   1.640705e+00
   2.048736e-02   1.425851e+00
   2.057600e-02   1.586992e+00
   2.066464e-02   1.469798e+00
   2.075328e-02   1.445383e+00
   2.084192e-02   1.464915e+00
   2.093056e-02   1.567459e+00
   2.101920e-02   1.528395e+00
   2.110784e-02   1.523512e+00
   2.119648e-02   1.464915e+00
   2.128512e-02   1.391670e+00
   2.137376e-02   1.479564e+00
   2.146240e-02   1.396553e+00
   2.155104e-02   1.381903e+00
   2.163968e-02   1.464915e+00
   2.172832e-02   1.386786e+00
   2.181696e-02   1.284242e+00
   2.190560e-02   1.381903e+00
   2.199424e-02   1.469798e+00
   2.208288e-02   1.352605e+00
   2.217152e-02   1.460032e+00
   2.226016e-02   1.420968e+00
   2.234880e-02   1.318424e+00
   2.243744e-02   1.430734e+00
   2.252608e-02   1.313541e+00
   2.261472e-02   1.284242e+00
   2.270336e-02   1.201231e+00
   2.279200e-02   1.264710e+00
   2.288064e-02   1.362371e+00
   2.296928e-02   1.254944e+00
   2.305792e-02   1.210997e+00
   2.314656e-02   1.201231e+00
   2.323520e-02   1.367254e+00
   2.332384e-02   1.250061e+00
   2.341248e-02   1.201231e+00
   2.350112e-02   1.240295e+00
   2.358976e-02   1.220763e+00
   2.367840e-02   1.113336e+00
   2.376704e-02   1.294008e+00
   2.385568e-02   1.206114e+00
   2.394432e-02   1.098686e+00
   2.403296e-02   1.171932e+00
   2.412160e-02   1.147517e+00
   2.421024e-02   1.220763e+00
   2.429888e-02   1.323307e+00
   2.438752e-02   1.064505e+00
   2.447616e-02   1.123102e+00
   2.456480e-02   1.152400e+00
   2.465344e-02   1.079154e+00
   2.474208e-02   1.079154e+00
   2.483072e-02   1.084037e+00
   2.491936e-02   1.235412e+00
   2.500800e-02   1.137751e+00
   2.509664e-02   1.088920e+00
   2.518528e-02   1.059622e+00
   2.527392e-02   1.088920e+00
   2.536256e-02   1.127985e+00
   2.545120e-02   1.015675e+00
   2.553984e-02   1.157283e+00
   2.562848e-02   1.103570e+00
   2.571712e-02   1.108453e+00
   2.580576e-02   1.142634e+00
   2.589440e-02   1.015675e+00
   2.598304e-02   1.015675e+00
   2.607168e-02   9.570780e-01
   2.616032e-02   1.137751e+00
   2.624896e-02   1.025441e+00
   2.633760e-02   1.137751e+00
   2.642624e-02   1.030324e+00
   2.651488e-02   9.033644e-01
   2.660352e-02   9.766102e-01
   2.669216e-02   9.326627e-01
   2.678080e-02   8.594170e-01
   2.686944e-02   9.521949e-01
   2.695808e-02   9.766102e-01
   2.704672e-02   1.001025e+00
   2.713536e-02   9.570780e-01
   2.722400e-02   9.277797e-01
   2.731264e-02   9.961424e-01
   2.740128e-02   9.424288e-01
   2.748992e-02   9.619610e-01
   2.757856e-02   9.326627e-01
   2.766720e-02   9.473119e-01
   2.775584e-02   1.123102e+00
   2.784448e-02   9.717271e-01
   2.793312e-02   9.228966e-01
   2.802176e-02   8.887153e-01
   2.811040e-02   8.740661e-01
   2.819904e-02   9.326627e-01
   2.828768e-02   8.350017e-01
   2.837632e-02   7.568729e-01
   2.846496e-02   9.814932e-01
   2.855360e-02   9.180136e-01
   2.864224e-02   7.422237e-01
   2.873088e-02   9.131305e-01
   2.881952e-02   9.375458e-01
   2.890816e-02   7.764051e-01
   2.899680e-02   8.105865e-01
   2.908544e-02   8.398848e-01
   2.917408e-02   8.154695e-01
   2.926272e-02   6.689780e-01
   2.935136e-02   8.789492e-01
   2.944000e-02   7.715220e-01
   2.952864e-02   8.545339e-01
   2.961728e-02   7.959373e-01
   2.970592e-02   8.691831e-01
   2.979456e-02   6.787441e-01
   2.988320e-02   6.933932e-01
   2.997184e-02   7.910543e-01
   3.006048e-02   8.105865e-01
   3.014912e-02   8.057034e-01
   3.023776e-02   7.812881e-01
   3.032640e-02   6.836271e-01
   3.041504e-02   8.252356e-01
   3.050368e-02   7.666390e-01
   3.059232e-02   7.129254e-01
   3.068096e-02   8.398848e-01
   3.076960e-02   7.275746e-01
   3.085824e-02   8.008204e-01
   3.094688e-02   8.398848e-01
   3.103552e-02   7.666390e-01
   3.112416e-02   7.226915e-01
   3.121280e-02   7.178085e-01
   3.130144e-02   7.129254e-01
   3.139008e-02   7.861712e-01
   3.147872e-02   6.885102e-01
   3.156736e-02   6.445627e-01
   3.165600e-02   6.543288e-01
   3.174464e-02   7.519898e-01
   3.183328e-02   7.031593e-01
   3.192192e-02   6.347966e-01
   3.201056e-02   7.373407e-01
   3.209920e-02   7.080424e-01
   3.218784e-02   6.201475e-01
   3.227648e-02   7.275746e-01
   3.236512e-02   7.178085e-01
   3.245376e-02   4.785390e-01
   3.254240e-02   6.347966e-01
   3.263104e-02   7.324576e-01
   3.271968e-02   5.469017e-01
   3.280832e-02   5.908492e-01
   3.289696e-02   6.885102e-01
   3.298560e-02   7.031593e-01
   3.307424e-02   6.592119e-01
   3.316288e-02   6.152644e-01
   3.325152e-02   6.982763e-01
   3.334016e-02   6.543288e-01
   3.342880e-02   5.615509e-01
   3.351744e-02   7.031593e-01
   3.360608e-02   6.543288e-01
   3.369472e-02   6.543288e-01
   3.378336e-02   5.127203e-01
   3.387200e-02   6.299136e-01
   3.396064e-02   6.738610e-01
   3.404928e-02   5.762000e-01
   3.413792e-02   6.103814e-01
   3.422656e-02   6.885102e-01
   3.431520e-02   5.420187e-01
   3.440384e-02   4.980712e-01
   3.449248e-02   6.689780e-01
   3.458112e-02   5.908492e-01
   3.466976e-02   6.933932e-01
   3.475840e-02   6.152644e-01
   3.484704e-02   5.176034e-01
   3.493568e-02   6.201475e-01
   3.502432e-02   4.980712e-01
   3.511296e-02   6.640949e-01
   3.520160e-02   6.787441e-01
   3.529024e-02   5.664339e-01
   3.537888e-02   5.420187e-01
   3.546752e-02   5.371356e-01
   3.555616e-02   3.955271e-01
   3.564480e-02   7.178085e-01
   3.573344e-02   5.713170e-01
   3.582208e-02   5.078373e-01
   3.591072e-02   6.787441e-01
   3.599936e-02   5.273695e-01
   3.608800e-02   5.713170e-01
   3.617664e-02   6.494458e-01
   3.626528e-02   5.664339e-01
   3.635392e-02   5.371356e-01
   3.644256e-02   4.150593e-01
   3.653120e-02   4.638898e-01
   3.661984e-02   5.762000e-01
   3.670848e-02   5.469017e-01
   3.679712e-02   5.029542e-01
   3.688576e-02   5.127203e-01
   3.697440e-02   5.713170e-01
   3.706304e-02   5.664339e-01
   3.715168e-02   5.859661e-01
   3.724032e-02   5.420187e-01
   3.732896e-02   4.638898e-01
   3.741760e-02   4.638898e-01
   3.750624e-02   4.345915e-01
   3.759488e-02   4.883051e-01
   3.768352e-02   4.492407e-01
   3.777216e-02   4.590068e-01
   3.786080e-02   5.517848e-01
   3.794944e-02   4.785390e-01
   3.803808e-02   5.176034e-01
   3.812672e-02   4.541237e-01
   3.821536e-02   6.152644e-01
   3.830400e-02   5.127203e-01
   3.839264e-02   4.541237e-01
   3.848128e-02   5.273695e-01
   3.856992e-02   4.443576e-01
   3.865856e-02   4.199424e-01
   3.874720e-02   4.590068e-01
   3.883584e-02   4.931881e-01
   3.892448e-02   5.273695e-01
   3.901312e-02   4.345915e-01
   3.910176e-02   3.662288e-01
   3.919040e-02   5.078373e-01
   3.927904e-02   4.199424e-01
   3.936768e-02   3.711119e-01
   3.945632e-02   3.320475e-01
   3.954496e-02   4.297085e-01
   3.963360e-02   3.466966e-01
   3.972224e-02   4.785390e-01
   3.981088e-02   3.955271e-01
   3.989952e-02   3.173983e-01
   3.998816e-02   4.590068e-01
   4.007680e-02   4.345915e-01
   4.016544e-02   3.662288e-01
   4.025408e-02   4.492407e-01
   4.034272e-02   4.199424e-01
   4.043136e-02   4.638898e-01
   4.052000e-02   4.443576e-01
   4.060864e-02   4.248254e-01
   4.069728e-02   4.150593e-01
   4.078592e-02   3.808780e-01
   4.087456e-02   4.297085e-01
   4.096320e-02   4.834220e-01
   4.105184e-02   3.222814e-01
   4.114048e-02   5.029542e-01
   4.122912e-02   2.246203e-01
   4.131776e-02   4.687729e-01
   4.140640e-02   4.052932e-01
   4.149504e-02   3.076322e-01
   4.158368e-02   3.711119e-01
   4.167232e-02   4.638898e-01
   4.176096e-02   4.248254e-01
   4.184960e-02   3.857610e-01
   4.193824e-02   3.808780e-01
   4.202688e-02   3.613458e-01
   4.211552e-02   5.176034e-01
   4.220416e-02   3.369305e-01
   4.229280e-02   4.101763e-01
   4.238144e-02   3.271644e-01
   4.247008e-02   3.466966e-01
   4.255872e-02   2.148542e-01
   4.264736e-02   3.515797e-01
   4.273600e-02   3.955271e-01
   4.282464e-02   4.052932e-01
   4.291328e-02   3.271644e-01
   4.300192e-02   2.881000e-01
   4.309056e-02   3.320475e-01
   4.317920e-02   3.955271e-01
   4.326784e-02   2.929831e-01
   4.335648e-02   3.711119e-01
   4.344512e-02   2.881000e-01
   4.353376e-02   4.638898e-01
   4.362240e-02   4.101763e-01
   4.371104e-02   2.588017e-01
   4.379968e-02   4.052932e-01
   4.388832e-02   3.711119e-01
   4.397696e-02   3.955271e-01
   4.406560e-02   4.150593e-01
   4.415424e-02   2.832170e-01
   4.424288e-02   3.320475e-01
   4.433152e-02   3.613458e-01
   4.442016e-02   3.271644e-01
   4.450880e-02   1.904390e-01
   4.459744e-02   2.588017e-01
   4.468608e-02   2.929831e-01
   4.477472e-02   3.466966e-01
   4.486336e-02   4.394746e-01
   4.495200e-02   3.613458e-01
   4.504064e-02   3.808780e-01
   4.512928e-02   2.832170e-01
   4.521792e-02   4.443576e-01
   4.530656e-02   3.955271e-01
   4.539520e-02   4.101763e-01
   4.548384e-02   2.343864e-01
   4.557248e-02   2.929831e-01
   4.566112e-02   4.101763e-01
   4.574976e-02   3.906441e-01
   4.583840e-02   3.662288e-01
   4.592704e-02   3.857610e-01
   4.601568e-02   2.978661e-01
   4.610432e-02   3.271644e-01
   4.619296e-02   2.881000e-01
   4.628160e-02   2.685678e-01
   4.637024e-02   2.734509e-01
   4.645888e-02   3.418136e-01
   4.654752e-02   1.855559e-01
   4.663616e-02   3.027492e-01
   4.672480e-02   2.978661e-01
   4.681344e-02   3.369305e-01
   4.690208e-02   3.173983e-01
   4.699072e-02   2.050881e-01
   4.707936e-02   2.783339e-01
   4.716800e-02   2.636848e-01
   4.725664e-02   3.711119e-01
   4.734528e-02   2.295034e-01
   4.743392e-02   2.636848e-01
   4.752256e-02   2.539186e-01
   4.761120e-02   2.490356e-01
   4.769984e-02   3.027492e-01
   4.778848e-02   3.027492e-01
   4.787712e-02   3.076322e-01
   4.796576e-02   3.076322e-01
   4.805440e-02   3.857610e-01
   4.814304e-02   2.539186e-01
   4.823168e-02   2.539186e-01
   4.832032e-02   2.929831e-01
   4.840896e-02   2.978661e-01
   4.849760e-02   2.392695e-01
   4.858624e-02   3.466966e-01
   4.867488e-02   3.222814e-01
   4.876352e-02   2.539186e-01
   4.885216e-02   2.441525e-01
   4.894080e-02   2.441525e-01
   4.902944e-02   2.734509e-01
   4.911808e-02   1.611407e-01
   4.920672e-02   3.173983e-01
   4.929536e-02   1.904390e-01
   4.938400e-02   2.539186e-01
   4.947264e-02   2.392695e-01
   4.956128e-02   2.050881e-01
   4.964992e-02   2.588017e-01
   4.973856e-02   1.660237e-01
   4.982720e-02   1.757898e-01
   4.991584e-02   2.050881e-01
   5.000448e-02   1.171932e-01
   5.009312e-02   2.636848e-01
   5.018176e-02   2.978661e-01
   5.027040e-02   2.343864e-01
   5.035904e-02   3.418136e-01
   5.044768e-02   2.588017e-01
   5.053632e-02   2.832170e-01
   5.062496e-02   1.806729e-01
   5.071360e-02   3.369305e-01
   5.080224e-02   2.246203e-01
   5.089088e-02   3.564627e-01
   5.097952e-02   2.148542e-01
   5.106816e-02   3.027492e-01
   5.115680e-02   2.881000e-01
   5.124544e-02   2.343864e-01
   5.133408e-02   9.766102e-02
   5.142272e-02   1.660237e-01
   5.151136e-02   3.076322e-01
   5.160000e-02   2.685678e-01
   5.168864e-02   2.343864e-01
   5.177728e-02   3.271644e-01
   5.186592e-02   2.734509e-01
   5.195456e-02   1.953220e-01
   5.204320e-02   1.611407e-01
   5.213184e-02   2.734509e-01
   5.222048e-02   1.562576e-01
   5.230912e-02   2.490356e-01
   5.239776e-02   2.783339e-01
   5.248640e-02   2.929831e-01
   5.257504e-02   2.197373e-01
   5.266368e-02   2.148542e-01
   5.275232e-02   2.148542e-01
   5.284096e-02   1.562576e-01
   5.292960e-02   3.466966e-01
   5.301824e-02   3.320475e-01
   5.310688e-02   1.660237e-01
   5.319552e-02   1.318424e-01
   5.328416e-02   1.806729e-01
   5.337280e-02   2.685678e-01
   5.346144e-02   5.859661e-02
   5.355008e-02   1.806729e-01
   5.363872e-02   2.343864e-01
   5.372736e-02   1.464915e-01
   5.381600e-02   2.002051e-01
   5.390464e-02   3.418136e-02
   5.399328e-02   1.611407e-01
   5.408192e-02   1.904390e-01
   5.417056e-02   2.246203e-01
   5.425920e-02   2.002051e-01
   5.434784e-02   2.490356e-01
   5.443648e-02   8.301187e-02
   5.452512e-02   2.734509e-01
   5.461376e-02   2.148542e-01
   5.470240e-02   2.832170e-01
   5.479104e-02   1.611407e-01
   5.487968e-02   1.513746e-01
   5.496832e-02   2.490356e-01
   5.505696e-02   2.099712e-01
   5.514560e-02   2.002051e-01
   5.523424e-02   1.904390e-01
   5.532288e-02   2.783339e-01
   5.541152e-02   1.953220e-01
   5.550016e-02   1.367254e-01
   5.558880e-02   2.685678e-01
   5.567744e-02   1.318424e-01
   5.576608e-02   2.832170e-01
   5.585472e-02   1.220763e-01
   5.594336e-02   2.148542e-01
   5.603200e-02   1.953220e-01
   5.612064e-02   1.757898e-01
   5.620928e-02   1.660237e-01
   5.629792e-02   1.904390e-01
   5.638656e-02   1.953220e-01
   5.647520e-02   3.466966e-01
   5.656384e-02   1.953220e-01
   5.665248e-02   2.246203e-01
   5.674112e-02   1.953220e-01
   5.682976e-02   2.050881e-01
   5.691840e-02   2.099712e-01
   5.700704e-02   1.709068e-01
   5.709568e-02   2.099712e-01
   5.718432e-02   1.806729e-01
   5.727296e-02   2.343864e-01
   5.736160e-02   1.416085e-01
   5.745024e-02   2.832170e-01
   5.753888e-02   1.025441e-01
   5.762752e-02   1.416085e-01
   5.771616e-02   6.836271e-02
   5.780480e-02   2.099712e-01
   5.789344e-02   2.197373e-01
   5.798208e-02   1.806729e-01
   5.807072e-02   8.301187e-02
   5.815936e-02   2.099712e-01
   5.824800e-02   1.220763e-01
   5.833664e-02   2.832170e-01
   5.842528e-02   1.660237e-01
   5.851392e-02   1.757898e-01
   5.860256e-02   2.490356e-01
   5.869120e-02   1.025441e-01
   5.877984e-02   2.441525e-01
   5.886848e-02   3.027492e-01
   5.895712e-02   2.343864e-01
   5.904576e-02   1.709068e-01
   5.913440e-02   2.490356e-01
   5.922304e-02   1.123102e-01
   5.931168e-02   2.343864e-01
   5.940032e-02   1.806729e-01
   5.948896e-02   2.343864e-01
   5.957760e-02   2.197373e-01
   5.966624e-02   2.099712e-01
   5.975488e-02   3.662288e-01
   5.984352e-02   1.806729e-01
   5.993216e-02   1.660237e-01
   6.002080e-02   1.123102e-01
   6.010944e-02   4.883051e-02
   6.019808e-02   8.789492e-02
   6.028672e-02   1.416085e-01
   6.037536e-02   1.318424e-01
   6.046400e-02   2.148542e-01
   6.055264e-02   1.660237e-01
   6.064128e-02   1.220763e-01
   6.072992e-02   1.757898e-01
   6.081856e-02   2.392695e-01
   6.090720e-02   2.392695e-01
   6.099584e-02   4.394746e-02
   6.108448e-02   8.789492e-02
   6.117312e-02   1.269593e-01
   6.126176e-02   1.464915e-01
   6.135040e-02   1.025441e-01
   6.143904e-02   9.277797e-02
   6.152768e-02   1.513746e-01
   6.161632e-02   7.812882e-02
   6.170496e-02   4.883051e-03
   6.179360e-02   1.757898e-01
   6.188224e-02   2.343864e-01
   6.197088e-02   2.148542e-01
   6.205952e-02   4.883051e-02
   6.214816e-02   1.953220e-01
   6.223680e-02   1.074271e-01
   6.232544e-02   1.123102e-01
   6.241408e-02  -4.883051e-03
   6.250272e-02   9.766102e-02
   6.259136e-02   1.367254e-01
   6.268000e-02   1.953220e-01
   6.276864e-02   1.318424e-01
   6.285728e-02   1.806729e-01
   6.294592e-02   1.757898e-01
   6.303456e-02   1.904390e-01
   6.312320e-02   5.859661e-02
   6.321184e-02   2.441525e-01
   6.330048e-02   1.660237e-01
   6.338912e-02   2.734509e-01
   6.347776e-02   1.806729e-01
   6.356640e-02  -5.371356e-02
   6.365504e-02   1.367254e-01
   6.374368e-02   1.513746e-01
   6.383232e-02   9.766102e-02
   6.392096e-02   1.806729e-01
   6.400960e-02   1.367254e-01
   6.409824e-02   2.050881e-01
   6.418688e-02   1.855559e-01
   6.427552e-02   1.367254e-01
   6.436416e-02   3.906441e-02
   6.445280e-02   2.246203e-01
   6.454144e-02   1.513746e-01
   6.463008e-02   2.148542e-01
   6.471872e-02   1.367254e-01
   6.480736e-02   5.371356e-02
   6.489600e-02   1.464915e-01
   6.498464e-02   1.513746e-01
   6.507328e-02   5.859661e-02
   6.516192e-02   2.002051e-01
   6.525056e-02   1.904390e-01
   6.533920e-02   1.171932e-01
   6.542784e-02   2.490356e-01
   6.551648e-02   1.562576e-01
   6.560512e-02   1.709068e-01
   6.569376e-02   2.099712e-01
   6.578240e-02   1.367254e-01
   6.587104e-02   6.836271e-02
   6.595968e-02   1.123102e-01
   6.604832e-02   2.197373e-01
   6.613696e-02   2.881000e-01
   6.622560e-02   1.416085e-01
   6.631424e-02   1.806729e-01
   6.640288e-02   1.464915e-02
   6.649152e-02   1.513746e-01
   6.658016e-02   1.464915e-01
   6.666880e-02   8.789492e-02
   6.675744e-02   1.220763e-01
   6.684608e-02   9.766102e-02
   6.693472e-02   1.416085e-01
   6.702336e-02   6.347966e-02
   6.711200e-02   2.929831e-02
   6.720064e-02   1.660237e-01
   6.728928e-02   1.513746e-01
   6.737792e-02   1.709068e-01
   6.746656e-02   1.464915e-01
   6.755520e-02   1.416085e-01
   6.764384e-02   1.611407e-01
   6.773248e-02   9.766102e-02
   6.782112e-02   7.812882e-02
   6.790976e-02   1.855559e-01
   6.799840e-02   1.513746e-01
   6.808704e-02   7.812882e-02
   6.817568e-02   1.611407e-01
   6.826432e-02   1.416085e-01
   6.835296e-02   1.269593e-01
   6.844160e-02   8.789492e-02
   6.853024e-02   4.394746e-02
   6.861888e-02   2.441526e-02
   6.870752e-02   2.148542e-01
   6.879616e-02   1.904390e-01
   6.888480e-02   1.464915e-01
   6.897344e-02   3.027492e-01
   6.906208e-02   1.806729e-01
   6.915072e-02   1.269593e-01
   6.923936e-02   1.269593e-01
   6.932800e-02   1.220763e-01
   6.941664e-02   1.074271e-01
   6.950528e-02   5.859661e-02
   6.959392e-02   1.757898e-01
   6.968256e-02   1.953220e-02
   6.977120e-02   2.441526e-02
   6.985984e-02   8.301187e-02
   6.994848e-02   1.709068e-01
   7.003712e-02   1.025441e-01
   7.012576e-02   1.513746e-01
   7.021440e-02   1.562576e-01
   7.030304e-02   1.513746e-01
   7.039168e-02   2.929831e-02
   7.048032e-02   9.277797e-02
   7.056896e-02   2.929831e-02
   7.065760e-02   1.562576e-01
   7.074624e-02   1.025441e-01
   7.083488e-02   1.709068e-01
   7.092352e-02   8.789492e-02
   7.101216e-02   1.367254e-01
   7.110080e-02   1.611407e-01
   7.118944e-02   1.904390e-01
   7.127808e-02   4.883051e-02
   7.136672e-02   8.301187e-02
   7.145536e-02   1.269593e-01
   7.154400e-02   6.347966e-02
   7.163264e-02   1.171932e-01
   7.172128e-02   7.812882e-02
   7.180992e-02   1.367254e-01
   7.189856e-02   5.859661e-02
   7.198720e-02   9.277797e-02
   7.207584e-02  -4.883051e-03
   7.216448e-02   8.789492e-02
   7.225312e-02   8.789492e-02
   7.234176e-02   2.441526e-02
   7.243040e-02   6.836271e-02
   7.251904e-02   4.394746e-02
   7.260768e-02   2.295034e-01
   7.269632e-02   4.394746e-02
   7.278496e-02   1.171932e-01
   7.287360e-02   8.789492e-02
   7.296224e-02   1.367254e-01
   7.305088e-02   1.318424e-01
   7.313952e-02   1.757898e-01
   7.322816e-02   7.812882e-02
   7.331680e-02   1.171932e-01
   7.340544e-02   1.123102e-01
   7.349408e-02   1.123102e-01
   7.358272e-02   5.371356e-02
   7.367136e-02   6.836271e-02
   7.376000e-02   9.766102e-03
   7.384864e-02   1.513746e-01
   7.393728e-02   1.464915e-01
   7.402592e-02   1.220763e-01
   7.411456e-02   8.301187e-02
   7.420320e-02   1.171932e-01
   7.429184e-02   4.883051e-02
   7.438048e-02   2.929831e-02
   7.446912e-02   1.367254e-01
   7.455776e-02   1.757898e-01
   7.464640e-02   4.883051e-02
   7.473504e-02   1.464915e-01
   7.482368e-02   7.812882e-02
   7.491232e-02   1.464915e-02
   7.500096e-02   2.441526e-02
   7.508960e-02   2.441526e-02
   7.517824e-02   3.906441e-02
   7.526688e-02  -6.836271e-02
   7.535552e-02   4.883051e-02
   7.544416e-02   6.836271e-02
   7.553280e-02   3.906441e-02
   7.562144e-02   6.347966e-02
   7.571008e-02   1.416085e-01
   7.579872e-02   1.318424e-01
   7.588736e-02   9.766102e-02
   7.597600e-02   8.301187e-02
   7.606464e-02   5.859661e-02
   7.615328e-02   1.660237e-01
   7.624192e-02   3.418136e-02
   7.633056e-02  -4.883051e-03
   7.641920e-02   1.171932e-01
   7.650784e-02   4.883051e-02
   7.659648e-02   1.074271e-01
   7.668512e-02   8.789492e-02
   7.677376e-02   1.367254e-01
   7.686240e-02   1.464915e-01
   7.695104e-02   8.301187e-02
   7.703968e-02   1.513746e-01
   7.712832e-02   1.757898e-01
   7.721696e-02   1.269593e-01
   7.730560e-02   1.123102e-01
   7.739424e-02   1.757898e-01
   7.748288e-02   4.883051e-02
   7.757152e-02   7.324576e-02
   7.766016e-02   1.513746e-01
   7.774880e-02   1.709068e-01
   7.783744e-02   9.277797e-02
   7.792608e-02   1.953220e-02
   7.801472e-02  -4.394746e-02
   7.810336e-02   1.123102e-01
   7.819200e-02   6.347966e-02
   7.828064e-02   6.836271e-02
   7.836928e-02   1.318424e-01
   7.845792e-02   8.789492e-02
   7.854656e-02   4.394746e-02
   7.863520e-02   8.789492e-02
   7.872384e-02   1.074271e-01
   7.881248e-02   9.277797e-02
   7.890112e-02  -2.441526e-02
   7.898976e-02   5.371356e-02
   7.907840e-02   8.301187e-02
   7.916704e-02   7.812882e-02
   7.925568e-02   1.269593e-01
   7.934432e-02   3.418136e-02
   7.943296e-02   0.000000e+00
   7.952160e-02   2.002051e-01
   7.961024e-02   1.074271e-01
   7.969888e-02   3.906441e-02
   7.978752e-02   8.789492e-02
   7.987616e-02   7.812882e-02
   7.996480e-02   2.246203e-01
   8.005344e-02   3.906441e-02
   8.014208e-02   9.766102e-03
   8.023072e-02   1.953220e-02
   8.031936e-02  -1.953220e-02
   8.040800e-02   2.441526e-02
   8.049664e-02   5.371356e-02
   8.058528e-02   1.220763e-01
   8.067392e-02   1.757898e-01
   8.076256e-02   1.660237e-01
   8.085120e-02   1.269593e-01
   8.093984e-02   9.766102e-02
   8.102848e-02   1.220763e-01
   8.111712e-02   1.464915e-01
   8.120576e-02   9.766102e-02
   8.129440e-02   1.123102e-01
   8.138304e-02   8.789492e-02
   8.147168e-02   4.394746e-02
   8.156032e-02   1.806729e-01
   8.164896e-02  -3.418136e-02
   8.173760e-02   4.883051e-03
   8.182624e-02   0.000000e+00
   8.191488e-02  -8.301187e-02
   8.200352e-02   9.766102e-03
   8.209216e-02   8.301187e-02
   8.218080e-02   9.277797e-02
   8.226944e-02   5.859661e-02
   8.235808e-02  -8.301187e-02
   8.244672e-02  -9.766102e-03
   8.253536e-02   4.883051e-03
   8.262400e-02   4.883051e-02
   8.271264e-02   4.883051e-02
   8.280128e-02   4.883051e-02
   8.288992e-02   1.953220e-02
   8.297856e-02   6.836271e-02
   8.306720e-02   6.347966e-02
   8.315584e-02   5.371356e-02
   8.324448e-02   8.789492e-02
   8.333312e-02  -4.883051e-03
   8.342176e-02   8.789492e-02
   8.351040e-02   2.929831e-02
   8.359904e-02  -1.464915e-02
   8.368768e-02   1.318424e-01
   8.377632e-02   9.766102e-02
   8.386496e-02   1.464915e-02
   8.395360e-02   3.418136e-02
   8.404224e-02   1.757898e-01
   8.413088e-02   2.929831e-02
   8.421952e-02   1.367254e-01
   8.430816e-02   1.464915e-02
   8.439680e-02   1.025441e-01
   8.448544e-02   1.611407e-01
   8.457408e-02  -9.766102e-03
   8.466272e-02   1.171932e-01
   8.475136e-02   6.347966e-02
   8.484000e-02   1.269593e-01
   8.492864e-02   1.269593e-01
   8.501728e-02   8.789492e-02
   8.510592e-02   9.277797e-02
   8.519456e-02   1.123102e-01
   8.528320e-02   1.123102e-01
   8.537184e-02   7.812882e-02
   8.546048e-02   1.123102e-01
   8.554912e-02   4.883051e-02
   8.563776e-02   2.441526e-02
   8.572640e-02   4.883051e-03
   8.581504e-02   5.371356e-02
   8.590368e-02   4.394746e-02
   8.599232e-02   1.171932e-01
   8.608096e-02   5.859661e-02
   8.616960e-02   3.418136e-02
   8.625824e-02   9.766102e-03
   8.634688e-02   1.709068e-01
   8.643552e-02  -1.464915e-02
   8.652416e-02  -2.929831e-02
   8.661280e-02   2.441526e-02
   8.670144e-02   0.000000e+00
   8.679008e-02   3.418136e-02
   8.687872e-02  -1.464915e-02
   8.696736e-02   4.883051e-02
   8.705600e-02   8.789492e-02
   8.714464e-02   9.766102e-02
   8.723328e-02   1.611407e-01
   8.732192e-02   6.836271e-02
   8.741056e-02  -5.859661e-02
   8.749920e-02   7.812882e-02
   8.758784e-02   7.812882e-02
   8.767648e-02   5.859661e-02
   8.776512e-02   2.441526e-02
   8.785376e-02   9.277797e-02
   8.794240e-02   6.836271e-02
   8.803104e-02   2.441526e-02
   8.811968e-02   2.929831e-02
   8.820832e-02   2.441526e-02
   8.829696e-02   7.812882e-02
   8.838560e-02   2.050881e-01
   8.847424e-02  -5.371356e-02
   8.856288e-02  -4.883051e-02
   8.865152e-02   0.000000e+00
   8.874016e-02   6.836271e-02
   8.882880e-02  -2.929831e-02
   8.891744e-02   1.220763e-01
   8.900608e-02   6.836271e-02
   8.909472e-02   9.766102e-03
   8.918336e-02   3.906441e-02
   8.927200e-02  -5.371356e-02
   8.936064e-02   9.766102e-03
   8.944928e-02   1.269593e-01
   8.953792e-02   8.301187e-02
   8.962656e-02  -4.394746e-02
   8.971520e-02   1.562576e-01
   8.980384e-02  -3.418136e-02
   8.989248e-02  -4.883051e-03
   8.998112e-02   7.324576e-02
   9.006976e-02   3.906441e-02
   9.015840e-02   1.611407e-01
   9.024704e-02   1.074271e-01
   9.033568e-02   1.464915e-01
   9.042432e-02   2.929831e-02
   9.051296e-02   1.269593e-01
   9.060160e-02   1.025441e-01
   9.069024e-02   5.859661e-02
   9.077888e-02  -9.766102e-03
   9.086752e-02   7.324576e-02
   9.095616e-02   6.347966e-02
   9.104480e-02   4.883051e-03
   9.113344e-02   4.883051e-02
   9.122208e-02   6.347966e-02
   9.131072e-02   8.301187e-02
   9.139936e-02   3.418136e-02
   9.148800e-02   1.123102e-01
   9.157664e-02   2.929831e-02
   9.166528e-02   5.371356e-02
   9.175392e-02   6.836271e-02
   9.184256e-02   1.709068e-01
   9.193120e-02   7.812882e-02
   9.201984e-02   1.171932e-01
   9.210848e-02  -9.766102e-03
   9.219712e-02   1.416085e-01
   9.228576e-02   9.277797e-02
   9.237440e-02   1.074271e-01
   9.246304e-02   1.269593e-01
   9.255168e-02   4.883051e-02
   9.264032e-02  -4.883051e-03
   9.272896e-02   1.416085e-01
   9.281760e-02   2.441526e-02
   9.290624e-02  -4.883051e-03
   9.299488e-02   9.766102e-03
   9.308352e-02   4.394746e-02
   9.317216e-02   0.000000e+00
   9.326080e-02   9.766102e-02
   9.334944e-02   0.000000e+00
   9.343808e-02   4.394746e-02
   9.352672e-02  -7.812882e-02
   9.361536e-02  -8.789492e-02
   9.370400e-02   7.324576e-02
   9.379264e-02   3.418136e-02
   9.388128e-02   1.709068e-01
   9.396992e-02   1.025441e-01
   9.405856e-02   6.836271e-02
   9.414720e-02   1.660237e-01
   9.423584e-02   6.836271e-02
   9.432448e-02   1.464915e-02
   9.441312e-02  -4.883051e-03
   9.450176e-02  -4.883051e-02
   9.459040e-02   1.464915e-02
   9.467904e-02   9.277797e-02
   9.476768e-02   5.371356e-02
   9.485632e-02  -4.394746e-02
   9.494496e-02   1.074271e-01
   9.503360e-02   6.836271e-02
   9.512224e-02   1.220763e-01
   9.521088e-02  -2.929831e-02
   9.529952e-02   2.441526e-02
   9.538816e-02   1.025441e-01
   9.547680e-02   2.441526e-02
   9.556544e-02   4.883051e-02
   9.565408e-02   9.766102e-03
   9.574272e-02   7.324576e-02
   9.583136e-02   2.929831e-02
   9.592000e-02   1.074271e-01
   9.600864e-02   7.324576e-02
   9.609728e-02   9.766102e-03
   9.618592e-02   6.347966e-02
   9.627456e-02   1.318424e-01
   9.636320e-02   5.371356e-02
   9.645184e-02   5.859661e-02
   9.654048e-02   1.953220e-02
   9.662912e-02   5.371356e-02
   9.671776e-02  -1.953220e-02
   9.680640e-02   1.025441e-01
   9.689504e-02   5.371356e-02
   9.698368e-02   5.859661e-02
   9.707232e-02   2.441526e-02
   9.716096e-02   3.906441e-02
   9.724960e-02   7.324576e-02
   9.733824e-02   4.883051e-02
   9.742688e-02  -8.789492e-02
   9.751552e-02   4.883051e-03
   9.760416e-02   3.906441e-02
   9.769280e-02   9.277797e-02
   9.778144e-02   4.394746e-02
   9.787008e-02   4.883051e-03
   9.795872e-02   1.123102e-01
   9.804736e-02  -2.929831e-02
   9.813600e-02  -9.766102e-03
   9.822464e-02   9.277797e-02
   9.831328e-02   1.025441e-01
   9.840192e-02   2.929831e-02
   9.849056e-02   1.367254e-01
   9.857920e-02   8.789492e-02
   9.866784e-02   1.464915e-01
   9.875648e-02   1.025441e-01
   9.884512e-02   6.836271e-02
   9.893376e-02   1.074271e-01
   9.902240e-02   7.812882e-02
   9.911104e-02  -2.929831e-02
   9.919968e-02   2.929831e-02
   9.928832e-02  -3.906441e-02
   9.937696e-02   3.906441e-02
   9.946560e-02  -2.929831e-02
   9.955424e-02   5.859661e-02
   9.964288e-02   0.000000e+00
   9.973152e-02   9.766102e-03
   9.982016e-02   8.789492e-02
   9.990880e-02  -4.883051e-03
   9.999744e-02   4.883051e-03
   1.000861e-01   3.906441e-02
   1.001747e-01  -6.347966e-02
   1.002634e-01  -9.766102e-03
   1.003520e-01   4.883051e-03
   1.004406e-01   2.441526e-02
   1.005293e-01   4.883051e-03
   1.006179e-01  -4.394746e-02
   1.007066e-01   1.464915e-02
   1.007952e-01   4.394746e-02
   1.008838e-01   1.269593e-01
   1.009725e-01  -2.441526e-02
   1.010611e-01   1.220763e-01
   1.011498e-01   8.301187e-02
   1.012384e-01   3.418136e-02
   1.013270e-01  -1.464915e-02
   1.014157e-01  -4.883051e-02
   1.015043e-01   4.883051e-02
   1.015930e-01  -3.418136e-02
   1.016816e-01   6.347966e-02
   1.017702e-01  -9.766102e-03
   1.018589e-01  -2.929831e-02
   1.019475e-01   1.220763e-01
   1.020362e-01   7.324576e-02
   1.021248e-01   4.883051e-03
   1.022134e-01   1.025441e-01
   1.023021e-01  -9.766102e-03
   1.023907e-01   1.123102e-01
   1.024794e-01   6.347966e-02
   1.025680e-01   1.025441e-01
   1.026566e-01   9.766102e-02
   1.027453e-01   1.709068e-01
   1.028339e-01   7.324576e-02
   1.029226e-01   9.766102e-02
   1.030112e-01   2.929831e-02
   1.030998e-01   1.464915e-02
   1.031885e-01  -1.416085e-01
   1.032771e-01   5.859661e-02
   1.033658e-01   6.347966e-02
   1.034544e-01   6.836271e-02
   1.035430e-01  -2.441526e-02
   1.036317e-01  -1.953220e-02
   1.037203e-01  -1.464915e-02
   1.038090e-01   9.766102e-03
   1.038976e-01   4.883051e-02
   1.039862e-01   1.464915e-01
   1.040749e-01   5.371356e-02
   1.041635e-01  -3.418136e-02
   1.042522e-01   8.789492e-02
   1.043408e-01  -1.953220e-02
   1.044294e-01   2.441526e-02
   1.045181e-01   1.416085e-01
   1.046067e-01   1.123102e-01
   1.046954e-01   1.220763e-01
   1.047840e-01   8.301187e-02
   1.048726e-01   7.812882e-02
   1.049613e-01   1.953220e-02
   1.050499e-01   8.301187e-02
   1.051386e-01   1.171932e-01
   1.052272e-01   4.883051e-03
   1.053158e-01   9.766102e-02
   1.054045e-01   8.301187e-02
   1.054931e-01   3.418136e-02
   1.055818e-01   1.562576e-01
   1.056704e-01   1.025441e-01
   1.057590e-01  -6.836271e-02
   1.058477e-01   1.367254e-01
   1.059363e-01   2.441526e-02
   1.060250e-01   1.709068e-01
   1.061136e-01   2.441526e-02
   1.062022e-01   1.709068e-01
   1.062909e-01   9.766102e-02
   1.063795e-01   7.324576e-02
   1.064682e-01  -4.883051e-03
   1.065568e-01   1.416085e-01
   1.066454e-01   1.074271e-01
   1.067341e-01   1.464915e-02
   1.068227e-01   1.904390e-01
   1.069114e-01  -1.367254e-01
   1.070000e-01   5.859661e-02
   1.070886e-01   1.269593e-01
   1.071773e-01   5.371356e-02
   1.072659e-01   8.789492e-02
   1.073546e-01  -1.171932e-01
   1.074432e-01   4.394746e-02
   1.075318e-01   1.025441e-01
   1.076205e-01   5.859661e-02
   1.077091e-01   4.883051e-02
   1.077978e-01  -4.883051e-03
   1.078864e-01   8.789492e-02
   1.079750e-01   1.904390e-01
   1.080637e-01   7.812882e-02
   1.081523e-01   1.318424e-01
   1.082410e-01   3.906441e-02
   1.083296e-01   3.906441e-02
   1.084182e-01   7.812882e-02
   1.085069e-01   5.371356e-02
   1.085955e-01   5.859661e-02
   1.086842e-01   1.464915e-02
   1.087728e-01   4.883051e-03
   1.088614e-01  -3.906441e-02
   1.089501e-01  -6.836271e-02
   1.090387e-01   1.416085e-01
   1.091274e-01   1.123102e-01
   1.092160e-01  -4.883051e-02
   1.093046e-01   7.812882e-02
   1.093933e-01  -2.441526e-02
   1.094819e-01   6.836271e-02
   1.095706e-01   5.371356e-02
   1.096592e-01   1.171932e-01
   1.097478e-01   9.766102e-03
   1.098365e-01   9.277797e-02
   1.099251e-01   7.812882e-02
   1.100138e-01  -9.766102e-03
   1.101024e-01  -4.883051e-03
   1.101910e-01   9.766102e-03
   1.102797e-01   1.367254e-01
   1.103683e-01   1.513746e-01
   1.104570e-01   1.025441e-01
   1.105456e-01   6.836271e-02
   1.106342e-01   1.123102e-01
   1.107229e-01   3.418136e-02
   1.108115e-01   4.883051e-02
   1.109002e-01   1.220763e-01
   1.109888e-01   5.859661e-02
   1.110774e-01   4.883051e-02
   1.111661e-01  -6.347966e-02
   1.112547e-01   9.766102e-03
   1.113434e-01   4.883051e-02
   1.114320e-01   7.324576e-02
   1.115206e-01   0.000000e+00
   1.116093e-01   5.371356e-02
   1.116979e-01  -1.123102e-01
   1.117866e-01   1.953220e-02
   1.118752e-01   9.766102e-03
   1.119638e-01   2.929831e-02
   1.120525e-01   9.766102e-03
   1.121411e-01   4.883051e-03
   1.122298e-01  -9.766102e-02
   1.123184e-01   7.812882e-02
   1.124070e-01   3.906441e-02
   1.124957e-01   1.464915e-02
   1.125843e-01   7.812882e-02
   1.126730e-01   5.859661e-02
   1.127616e-01   1.709068e-01
   1.128502e-01  -4.883051e-02
   1.129389e-01   9.766102e-03
   1.130275e-01  -1.464915e-02
   1.131162e-01   5.859661e-02
   1.132048e-01  -7.812882e-02
   1.132934e-01   5.371356e-02
   1.133821e-01  -1.953220e-02
   1.134707e-01   4.394746e-02
   1.135594e-01  -8.301187e-02
   1.136480e-01   1.757898e-01
   1.137366e-01   6.836271e-02
   1.138253e-01   1.611407e-01
   1.139139e-01   4.883051e-02
   1.140026e-01   1.464915e-02
   1.140912e-01  -1.464915e-02
   1.141798e-01   1.074271e-01
   1.142685e-01   4.883051e-02
   1.143571e-01   1.220763e-01
   1.144458e-01   1.464915e-02
   1.145344e-01   6.347966e-02
   1.146230e-01  -4.883051e-02
   1.147117e-01   7.324576e-02
   1.148003e-01   4.394746e-02
   1.148890e-01   3.418136e-02
   1.149776e-01   1.123102e-01
   1.150662e-01   3.906441e-02
   1.151549e-01   9.277797e-02
   1.152435e-01   4.883051e-03
   1.153322e-01  -4.883051e-02
   1.154208e-01   1.123102e-01
   1.155094e-01   5.859661e-02
   1.155981e-01  -6.347966e-02
   1.156867e-01   3.906441e-02
   1.157754e-01  -8.789492e-02
   1.158640e-01  -4.883051e-02
   1.159526e-01   1.367254e-01
   1.160413e-01   8.301187e-02
   1.161299e-01  -4.883051e-03
   1.162186e-01   5.859661e-02
   1.163072e-01   5.371356e-02
   1.163958e-01   1.855559e-01
   1.164845e-01  -1.953220e-02
   1.165731e-01   8.789492e-02
   1.166618e-01   7.324576e-02
   1.167504e-01  -4.394746e-02
   1.168390e-01   5.371356e-02
   1.169277e-01  -1.464915e-02
   1.170163e-01   2.441526e-02
   1.171050e-01   8.301187e-02
   1.171936e-01  -9.766102e-03
   1.172822e-01   0.000000e+00
   1.173709e-01  -2.929831e-02
   1.174595e-01   9.766102e-02
   1.175482e-01   2.099712e-01
   1.176368e-01  -5.371356e-02
   1.177254e-01   4.394746e-02
   1.178141e-01   4.883051e-03
   1.179027e-01   9.766102e-02
   1.179914e-01   4.883051e-03
   1.180800e-01   1.464915e-02
   1.181686e-01   4.394746e-02
   1.182573e-01   3.418136e-02
   1.183459e-01   6.836271e-02
   1.184346e-01   2.929831e-02
   1.185232e-01  -3.906441e-02
   1.186118e-01   9.277797e-02
   1.187005e-01   4.883051e-03
   1.187891e-01  -3.418136e-02
   1.188778e-01  -4.883051e-03
   1.189664e-01   1.416085e-01
   1.190550e-01  -1.074271e-01
   1.191437e-01   1.220763e-01
   1.192323e-01   1.953220e-02
   1.193210e-01   1.855559e-01
   1.194096e-01   5.371356e-02
   1.194982e-01   3.906441e-02
   1.195869e-01   1.953220e-02
   1.196755e-01   2.929831e-02
   1.197642e-01   1.123102e-01
   1.198528e-01   2.441526e-02
   1.199414e-01   1.464915e-02
   1.200301e-01   5.859661e-02
   1.201187e-01  -8.789492e-02
   1.202074e-01   8.789492e-02
   1.202960e-01   9.766102e-03
   1.203846e-01   2.441526e-02
   1.204733e-01   7.324576e-02
   1.205619e-01   1.953220e-02
   1.206506e-01  -4.883051e-03
   1.207392e-01   6.836271e-02
   1.208278e-01   7.324576e-02
   1.209165e-01  -3.906441e-02
   1.210051e-01   1.953220e-02
   1.210938e-01   1.953220e-02
   1.211824e-01   1.074271e-01
   1.212710e-01   4.883051e-03
   1.213597e-01  -9.766102e-03
   1.214483e-01   4.883051e-03
   1.215370e-01   1.464915e-02
   1.216256e-01  -1.953220e-02
   1.217142e-01   7.324576e-02
   1.218029e-01   5.371356e-02
   1.218915e-01   7.812882e-02
   1.219802e-01   1.269593e-01
   1.220688e-01   5.859661e-02
   1.221574e-01   8.301187e-02
   1.222461e-01   1.318424e-01
   1.223347e-01  -9.766102e-03
   1.224234e-01  -8.301187e-02
   1.225120e-01  -9.766102e-03
   1.226006e-01   5.859661e-02
   1.226893e-01  -1.953220e-02
   1.227779e-01  -4.883051e-02
   1.228666e-01   6.347966e-02
   1.229552e-01  -2.929831e-02
   1.230438e-01  -4.394746e-02
   1.231325e-01   9.766102e-02
   1.232211e-01   1.464915e-02
   1.233098e-01   1.464915e-01
   1.233984e-01   2.929831e-02
   1.234870e-01  -1.464915e-02
   1.235757e-01  -3.906441e-02
   1.236643e-01   5.371356e-02
   1.237530e-01   2.441526e-02
   1.238416e-01   1.074271e-01
   1.239302e-01   8.301187e-02
   1.240189e-01   5.859661e-02
   1.241075e-01   9.277797e-02
   1.241962e-01   2.929831e-02
   1.242848e-01   5.859661e-02
   1.243734e-01  -5.371356e-02
   1.244621e-01   4.883051e-02
   1.245507e-01   9.766102e-02
   1.246394e-01   4.394746e-02
   1.247280e-01   3.906441e-02
   1.248166e-01  -4.883051e-02
   1.249053e-01  -2.441526e-02
   1.249939e-01  -3.906441e-02
   1.250826e-01  -4.883051e-02
   1.251712e-01   8.789492e-02
   1.252598e-01  -3.418136e-02
   1.253485e-01  -1.074271e-01
   1.254371e-01  -1.074271e-01
   1.255258e-01   0.000000e+00
   1.256144e-01   5.371356e-02
   1.257030e-01   5.859661e-02
   1.257917e-01   8.301187e-02
   1.258803e-01   7.324576e-02
   1.259690e-01   1.562576e-01
   1.260576e-01   1.464915e-02
   1.261462e-01   5.859661e-02
   1.262349e-01   4.883051e-02
   1.263235e-01   4.883051e-02
   1.264122e-01   1.171932e-01
   1.265008e-01   1.025441e-01
   1.265894e-01  -3.418136e-02
   1.266781e-01   4.883051e-03
   1.267667e-01   4.883051e-03
   1.268554e-01   4.394746e-02
   1.269440e-01  -8.301187e-02
   1.270326e-01   1.464915e-02
   1.271213e-01   7.812882e-02
   1.272099e-01   0.000000e+00
   1.272986e-01   5.859661e-02
   1.273872e-01   4.883051e-02
   1.274758e-01  -1.953220e-02
   1.275645e-01   4.883051e-02
   1.276531e-01   6.347966e-02
   1.277418e-01  -4.394746e-02
   1.278304e-01   1.953220e-02
   1.279190e-01   9.766102e-03
   1.280077e-01   6.347966e-02
   1.280963e-01  -3.906441e-02
   1.281850e-01   5.371356e-02
   1.282736e-01   1.220763e-01
   1.283622e-01  -6.836271e-02
   1.284509e-01  -1.464915e-02
   1.285395e-01  -8.789492e-02
   1.286282e-01   7.812882e-02
   1.287168e-01   1.562576e-01
   1.288054e-01   6.347966e-02
   1.288941e-01   3.418136e-02
   1.289827e-01  -5.859661e-02
   1.290714e-01  -2.441526e-02
   1.291600e-01   1.953220e-02
   1.292486e-01   1.464915e-02
   1.293373e-01  -2.929831e-02
   1.294259e-01   4.394746e-02
   1.295146e-01   1.269593e-01
   1.296032e-01   9.766102e-03
   1.296918e-01   5.371356e-02
   1.297805e-01   0.000000e+00
   1.298691e-01   0.000000e+00
   1.299578e-01  -9.766102e-03
   1.300464e-01   5.859661e-02
   1.301350e-01  -4.883051e-02
   1.302237e-01   4.883051e-03
   1.303123e-01   1.025441e-01
   1.304010e-01  -9.766102e-03
   1.304896e-01   9.766102e-03
   1.305782e-01   7.324576e-02
   1.306669e-01   3.418136e-02
   1.307555e-01   7.812882e-02
   1.308442e-01   8.301187e-02
   1.309328e-01   4.883051e-02
   1.310214e-01  -4.883051e-03
   1.311101e-01   0.000000e+00
   1.311987e-01   1.953220e-02
   1.312874e-01   3.418136e-02
   1.313760e-01   5.371356e-02
   1.314646e-01   1.269593e-01
   1.315533e-01   2.441526e-02
   1.316419e-01   9.766102e-02
   1.317306e-01  -2.441526e-02
   1.318192e-01   9.766102e-02
   1.319078e-01   5.859661e-02
   1.319965e-01  -2.441526e-02
   1.320851e-01   4.883051e-03
   1.321738e-01  -9.766102e-03
   1.322624e-01   1.953220e-02
   1.323510e-01   4.394746e-02
   1.324397e-01  -4.883051e-03
   1.325283e-01  -4.394746e-02
   1.326170e-01  -1.953220e-02
   1.327056e-01   5.859661e-02
   1.327942e-01   2.002051e-01
   1.328829e-01   1.953220e-02
   1.329715e-01   4.883051e-02
   1.330602e-01  -1.953220e-02
   1.331488e-01  -2.929831e-02
   1.332374e-01  -3.906441e-02
   1.333261e-01   6.347966e-02
   1.334147e-01  -2.929831e-02
   1.335034e-01   1.269593e-01
   1.335920e-01  -7.812882e-02
   1.336806e-01  -4.883051e-02
   1.337693e-01  -4.883051e-03
   1.338579e-01  -1.464915e-02
   1.339466e-01   8.301187e-02
   1.340352e-01  -5.371356e-02
   1.341238e-01  -4.394746e-02
   1.342125e-01   3.906441e-02
   1.343011e-01   3.418136e-02
   1.343898e-01   1.025441e-01
   1.344784e-01   2.929831e-02
   1.345670e-01   4.883051e-02
   1.346557e-01   3.418136e-02
   1.347443e-01  -5.371356e-02
   1.348330e-01  -2.441526e-02
   1.349216e-01   7.324576e-02
   1.350102e-01  -6.347966e-02
   1.350989e-01   1.269593e-01
   1.351875e-01   5.371356e-02
   1.352762e-01   1.269593e-01
   1.353648e-01   9.277797e-02
   1.354534e-01  -4.883051e-02
   1.355421e-01  -3.418136e-02
   1.356307e-01  -1.025441e-01
   1.357194e-01   3.418136e-02
   1.358080e-01   7.324576e-02
   1.358966e-01   9.277797e-02
   1.359853e-01  -1.025441e-01
   1.360739e-01   1.953220e-02
   1.361626e-01   3.418136e-02
   1.362512e-01   6.836271e-02
   1.363398e-01  -3.418136e-02
   1.364285e-01   5.859661e-02
   1.365171e-01  -1.464915e-02
   1.366058e-01   7.812882e-02
   1.366944e-01   1.171932e-01
   1.367830e-01  -5.371356e-02
   1.368717e-01   0.000000e+00
   1.369603e-01  -1.074271e-01
   1.370490e-01  -3.906441e-02
   1.371376e-01  -4.883051e-03
   1.372262e-01   4.883051e-02
   1.373149e-01  -7.324576e-02
   1.374035e-01   9.766102e-03
   1.374922e-01  -4.883051e-03
   1.375808e-01   5.371356e-02
   1.376694e-01   1.025441e-01
   1.377581e-01   4.883051e-03
   1.378467e-01  -4.883051e-03
   1.379354e-01   6.836271e-02
   1.380240e-01   4.883051e-03
   1.381126e-01   7.324576e-02
   1.382013e-01  -6.347966e-02
   1.382899e-01   6.347966e-02
   1.383786e-01   6.836271e-02
   1.384672e-01  -4.883051e-03
   1.385558e-01   1.318424e-01
   1.386445e-01   6.347966e-02
   1.387331e-01  -9.766102e-03
   1.388218e-01  -7.812882e-02
   1.389104e-01   3.418136e-02
   1.389990e-01  -2.441526e-02
   1.390877e-01  -3.906441e-02
   1.391763e-01   6.347966e-02
   1.392650e-01   4.883051e-03
   1.393536e-01   7.812882e-02
   1.394422e-01   0.000000e+00
   1.395309e-01   1.318424e-01
   1.396195e-01  -2.929831e-02
   1.397082e-01   9.766102e-03
   1.397968e-01   2.929831e-02
   1.398854e-01  -1.025441e-01
   1.399741e-01  -2.929831e-02
   1.400627e-01   4.883051e-02
   1.401514e-01   2.929831e-02
   1.402400e-01   6.347966e-02
   1.403286e-01   6.347966e-02
   1.404173e-01  -6.836271e-02
   1.405059e-01   3.906441e-02
   1.405946e-01   3.906441e-02
   1.406832e-01   1.074271e-01
   1.407718e-01   1.220763e-01
   1.408605e-01  -5.859661e-02
   1.409491e-01   6.347966e-02
   1.410378e-01  -4.883051e-02
   1.411264e-01  -4.883051e-03
   1.412150e-01   1.953220e-02
   1.413037e-01   3.418136e-02
   1.413923e-01   7.324576e-02
   1.414810e-01   1.953220e-02
   1.415696e-01   2.929831e-02
   1.416582e-01  -2.441526e-02
   1.417469e-01   1.074271e-01
   1.418355e-01   0.000000e+00
   1.419242e-01   5.859661e-02
   1.420128e-01   4.394746e-02
   1.421014e-01   9.766102e-03
   1.421901e-01   6.347966e-02
   1.422787e-01   6.347966e-02
   1.423674e-01   4.883051e-03
   1.424560e-01   1.953220e-02
   1.425446e-01   1.513746e-01
   1.426333e-01   7.812882e-02
   1.427219e-01  -1.953220e-02
   1.428106e-01   1.953220e-02
   1.428992e-01  -3.418136e-02
   1.429878e-01   8.301187e-02
   1.430765e-01   2.441526e-02
   1.431651e-01   7.812882e-02
   1.432538e-01   4.394746e-02
   1.433424e-01   1.464915e-02
   1.434310e-01   8.301187e-02
   1.435197e-01   1.367254e-01
   1.436083e-01   2.929831e-02
   1.436970e-01   3.418136e-02
   1.437856e-01  -6.836271e-02
   1.438742e-01   1.171932e-01
   1.439629e-01   1.025441e-01
   1.440515e-01   1.953220e-02
   1.441402e-01   0.000000e+00
   1.442288e-01   6.836271e-02
   1.443174e-01  -1.464915e-02
   1.444061e-01   1.171932e-01
   1.444947e-01   5.859661e-02
   1.445834e-01   9.766102e-03
   1.446720e-01   2.929831e-02
   1.447606e-01   6.836271e-02
   1.448493e-01   1.123102e-01
   1.449379e-01  -2.929831e-02
   1.450266e-01   1.318424e-01
   1.451152e-01  -6.836271e-02
   1.452038e-01  -9.766102e-03
   1.452925e-01   7.324576e-02
   1.453811e-01   1.562576e-01
   1.454698e-01   7.812882e-02
   1.455584e-01   3.906441e-02
   1.456470e-01   1.953220e-02
   1.457357e-01   4.883051e-02
   1.458243e-01  -7.324576e-02
   1.459130e-01   3.418136e-02
   1.460016e-01  -9.277797e-02
   1.460902e-01   4.883051e-03
   1.461789e-01   0.000000e+00
   1.462675e-01  -3.906441e-02
   1.463562e-01   3.418136e-02
   1.464448e-01  -2.441526e-02
   1.465334e-01   6.347966e-02
   1.466221e-01   4.883051e-03
   1.467107e-01  -4.883051e-02
   1.467994e-01   2.441526e-02
   1.468880e-01  -1.464915e-02
   1.469766e-01   1.123102e-01
   1.470653e-01   4.394746e-02
   1.471539e-01   1.660237e-01
   1.472426e-01   1.220763e-01
   1.473312e-01  -2.441526e-02
   1.474198e-01   1.416085e-01
   1.475085e-01   6.347966e-02
   1.475971e-01  -2.929831e-02
   1.476858e-01   4.394746e-02
   1.477744e-01   2.441526e-02
   1.478630e-01   1.123102e-01
   1.479517e-01  -4.394746e-02
   1.480403e-01   1.123102e-01
   1.481290e-01  -6.836271e-02
   1.482176e-01   1.123102e-01
   1.483062e-01   1.660237e-01
   1.483949e-01   3.418136e-02
   1.484835e-01  -4.883051e-03
   1.485722e-01   3.418136e-02
   1.486608e-01  -5.371356e-02
   1.487494e-01   8.301187e-02
   1.488381e-01  -4.883051e-03
   1.489267e-01   5.371356e-02
   1.490154e-01   4.883051e-03
   1.491040e-01  -4.883051e-03
   1.491926e-01  -1.464915e-02
   1.492813e-01  -3.418136e-02
   1.493699e-01  -4.394746e-02
   1.494586e-01   6.347966e-02
   1.495472e-01  -2.929831e-02
   1.496358e-01   2.441526e-02
   1.497245e-01  -2.441526e-02
   1.498131e-01   5.859661e-02
   1.499018e-01  -4.883051e-03
   1.499904e-01   1.318424e-01
   1.500790e-01  -3.906441e-02
   1.501677e-01   6.836271e-02
   1.502563e-01   4.883051e-03
   1.503450e-01  -9.766102e-03
   1.504336e-01  -8.301187e-02
   1.505222e-01  -7.324576e-02
   1.506109e-01  -4.394746e-02
   1.506995e-01  -6.347966e-02
   1.507882e-01   1.464915e-02
   1.508768e-01   7.324576e-02
   1.509654e-01   3.418136e-02
   1.510541e-01  -7.812882e-02
   1.511427e-01   3.906441e-02
   1.512314e-01  -2.441526e-02
   1.513200e-01   1.318424e-01
   1.514086e-01   8.789492e-02
   1.514973e-01   2.929831e-02
   1.515859e-01  -9.277797e-02
   1.516746e-01   0.000000e+00
   1.517632e-01   1.025441e-01
   1.518518e-01   6.347966e-02
   1.519405e-01   6.347966e-02
   1.520291e-01   1.464915e-01
   1.521178e-01  -9.766102e-02
   1.522064e-01   2.929831e-02
   1.522950e-01   0.000000e+00
   1.523837e-01  -2.929831e-02
   1.524723e-01   7.812882e-02
   1.525610e-01   5.371356e-02
   1.526496e-01   1.953220e-02
   1.527382e-01  -8.301187e-02
   1.528269e-01   8.789492e-02
   1.529155e-01   3.418136e-02
   1.530042e-01  -3.418136e-02
   1.530928e-01   4.883051e-03
   1.531814e-01   6.347966e-02
   1.532701e-01   4.883051e-03
   1.533587e-01   5.859661e-02
   1.534474e-01  -1.464915e-02
   1.535360e-01   3.418136e-02
   1.536246e-01   1.220763e-01
   1.537133e-01   6.347966e-02
   1.538019e-01   3.906441e-02
   1.538906e-01   6.347966e-02
   1.539792e-01  -3.906441e-02
   1.540678e-01   4.883051e-02
   1.541565e-01   8.789492e-02
   1.542451e-01   6.836271e-02
   1.543338e-01  -4.883051e-03
   1.544224e-01  -3.906441e-02
   1.545110e-01   7.812882e-02
   1.545997e-01   1.660237e-01
   1.546883e-01   9.766102e-02
   1.547770e-01  -9.766102e-03
   1.548656e-01   1.025441e-01
   1.549542e-01   5.859661e-02
   1.550429e-01   4.883051e-03
   1.551315e-01   5.371356e-02
   1.552202e-01   1.611407e-01
   1.553088e-01   1.953220e-02
   1.553974e-01   1.953220e-02
   1.554861e-01  -9.766102e-03
   1.555747e-01  -8.789492e-02
   1.556634e-01   3.906441e-02
   1.557520e-01   1.953220e-02
   1.558406e-01   1.611407e-01
   1.559293e-01  -1.953220e-02
   1.560179e-01   2.441526e-02
   1.561066e-01   0.000000e+00
   1.561952e-01  -5.859661e-02
   1.562838e-01   3.906441e-02
   1.563725e-01  -1.367254e-01
   1.564611e-01   1.709068e-01
   1.565498e-01   1.953220e-02
   1.566384e-01  -1.464915e-02
   1.567270e-01   1.171932e-01
   1.568157e-01   5.859661e-02
   1.569043e-01   1.074271e-01
   1.569930e-01   6.836271e-02
   1.570816e-01   2.929831e-02
   1.571702e-01   4.883051e-03
   1.572589e-01   2.929831e-02
   1.573475e-01   9.277797e-02
   1.574362e-01  -3.418136e-02
   1.575248e-01  -1.953220e-02
   1.576134e-01   1.171932e-01
   1.577021e-01  -2.929831e-02
   1.577907e-01  -8.789492e-02
   1.578794e-01   9.277797e-02
   1.579680e-01   3.418136e-02
   1.580566e-01   8.789492e-02
   1.581453e-01   9.766102e-03
   1.582339e-01   5.859661e-02
   1.583226e-01   3.906441e-02
   1.584112e-01   1.611407e-01
   1.584998e-01   9.766102e-02
   1.585885e-01  -3.906441e-02
   1.586771e-01   2.441526e-02
   1.587658e-01   4.394746e-02
   1.588544e-01  -7.812882e-02
   1.589430e-01   2.441526e-02
   1.590317e-01   3.418136e-02
   1.591203e-01   2.441526e-02
   1.592090e-01  -4.883051e-03
   1.592976e-01   5.859661e-02
   1.593862e-01  -6.347966e-02
   1.594749e-01  -2.441526e-02
   1.595635e-01  -2.441526e-02
   1.596522e-01  -6.836271e-02
   1.597408e-01   2.441526e-02
   1.598294e-01   1.953220e-02
   1.599181e-01  -5.371356e-02
   1.600067e-01  -9.766102e-03
   1.600954e-01   0.000000e+00
   1.601840e-01  -2.441526e-02
   1.602726e-01  -8.789492e-02
   1.603613e-01   2.441526e-02
   1.604499e-01   0.000000e+00
   1.605386e-01  -4.883051e-03
   1.606272e-01  -3.906441e-02
   1.607158e-01   1.318424e-01
   1.608045e-01   6.347966e-02
   1.608931e-01   4.883051e-03
   1.609818e-01  -9.766102e-03
   1.610704e-01  -7.324576e-02
   1.611590e-01  -9.766102e-03
   1.612477e-01  -2.929831e-02
   1.613363e-01  -6.836271e-02
   1.614250e-01   9.766102e-02
   1.615136e-01  -1.953220e-02
   1.616022e-01   1.269593e-01
   1.616909e-01  -2.929831e-02
   1.617795e-01  -3.418136e-02
   1.618682e-01  -9.766102e-03
   1.619568e-01  -4.394746e-02
   1.620454e-01   3.418136e-02
   1.621341e-01  -1.953220e-02
   1.622227e-01  -4.883051e-02
   1.623114e-01  -9.277797e-02
   1.624000e-01   2.929831e-02
   1.624886e-01   3.418136e-02
   1.625773e-01   4.883051e-02
   1.626659e-01   7.812882e-02
   1.627546e-01  -6.347966e-02
   1.628432e-01  -8.789492e-02
   1.629318e-01  -5.371356e-02
   1.630205e-01  -2.929831e-02
   1.631091e-01   5.859661e-02
   1.631978e-01   5.371356e-02
   1.632864e-01  -3.418136e-02
   1.633750e-01   1.953220e-02
   1.634637e-01  -6.347966e-02
   1.635523e-01  -7.324576e-02
   1.636410e-01   4.883051e-02
   1.637296e-01   1.464915e-02
   1.638182e-01  -5.859661e-02
   1.639069e-01  -1.464915e-02
   1.639955e-01  -7.324576e-02
   1.640842e-01  -2.929831e-02
   1.641728e-01   3.418136e-02
   1.642614e-01  -4.883051e-02
   1.643501e-01   2.441526e-02
   1.644387e-01  -1.074271e-01
   1.645274e-01  -5.859661e-02
   1.646160e-01   2.929831e-02
   1.647046e-01   1.464915e-02
   1.647933e-01   2.050881e-01
   1.648819e-01   3.418136e-02
   1.649706e-01  -9.766102e-02
   1.650592e-01   4.883051e-02
   1.651478e-01   8.789492e-02
   1.652365e-01  -9.766102e-03
   1.653251e-01   9.766102e-02
   1.654138e-01   4.394746e-02
   1.655024e-01   4.883051e-02
   1.655910e-01   1.953220e-02
   1.656797e-01   8.789492e-02
   1.657683e-01   5.371356e-02
   1.658570e-01   6.347966e-02
   1.659456e-01   4.883051e-03
   1.660342e-01   1.513746e-01
   1.661229e-01   2.929831e-02
   1.662115e-01   9.766102e-03
   1.663002e-01  -8.301187e-02
   1.663888e-01   1.757898e-01
   1.664774e-01   2.441526e-02
   1.665661e-01   9.766102e-03
   1.666547e-01   9.277797e-02
   1.667434e-01   4.394746e-02
   1.668320e-01   5.859661e-02
   1.669206e-01   3.418136e-02
   1.670093e-01  -3.906441e-02
   1.670979e-01  -2.441526e-02
   1.671866e-01   1.269593e-01
   1.672752e-01   5.859661e-02
   1.673638e-01   9.766102e-02
   1.674525e-01  -1.025441e-01
   1.675411e-01   9.766102e-02
   1.676298e-01  -6.347966e-02
   1.677184e-01   7.324576e-02
   1.678070e-01   2.441526e-02
   1.678957e-01   0.000000e+00
   1.679843e-01   5.371356e-02
   1.680730e-01   0.000000e+00
   1.681616e-01   4.394746e-02
   1.682502e-01   3.418136e-02
   1.683389e-01  -8.301187e-02
   1.684275e-01   6.836271e-02
   1.685162e-01   1.464915e-02
   1.686048e-01   5.371356e-02
   1.686934e-01   3.418136e-02
   1.687821e-01  -4.883051e-02
   1.688707e-01   4.883051e-02
   1.689594e-01   2.929831e-02
   1.690480e-01   6.347966e-02
   1.691366e-01   0.000000e+00
   1.692253e-01   5.371356e-02
   1.693139e-01  -7.324576e-02
   1.694026e-01   1.855559e-01
   1.694912e-01   0.000000e+00
   1.695798e-01  -2.441526e-02
   1.696685e-01  -3.906441e-02
   1.697571e-01   8.789492e-02
   1.698458e-01   9.277797e-02
   1.699344e-01  -2.929831e-02
   1.700230e-01  -4.883051e-03
   1.701117e-01   8.789492e-02
   1.702003e-01   5.859661e-02
   1.702890e-01  -1.953220e-02
   1.703776e-01   9.277797e-02
   1.704662e-01  -6.836271e-02
   1.705549e-01  -4.883051e-02
   1.706435e-01  -7.324576e-02
   1.707322e-01  -2.929831e-02
   1.708208e-01   9.766102e-03
   1.709094e-01  -3.418136e-02
   1.709981e-01   9.766102e-03
   1.710867e-01   1.123102e-01
   1.711754e-01  -2.441526e-02
   1.712640e-01   6.347966e-02
   1.713526e-01   1.269593e-01
   1.714413e-01   6.347966e-02
   1.715299e-01   5.859661e-02
   1.716186e-01  -6.347966e-02
   1.717072e-01   9.766102e-03
   1.717958e-01   3.906441e-02
   1.718845e-01   4.883051e-02
   1.719731e-01   2.929831e-02
   1.720618e-01   1.953220e-02
   1.721504e-01   8.301187e-02
   1.722390e-01  -9.277797e-02
   1.723277e-01  -7.812882e-02
   1.724163e-01   8.789492e-02
   1.725050e-01   1.953220e-02
   1.725936e-01  -7.324576e-02
   1.726822e-01   9.277797e-02
   1.727709e-01  -4.883051e-02
   1.728595e-01   1.171932e-01
   1.729482e-01   1.953220e-02
   1.730368e-01  -5.371356e-02
   1.731254e-01   5.371356e-02
   1.732141e-01   1.171932e-01
   1.733027e-01   9.766102e-02
   1.733914e-01   0.000000e+00
   1.734800e-01   4.394746e-02
   1.735686e-01   1.464915e-02
   1.736573e-01   5.859661e-02
   1.737459e-01   1.806729e-01
   1.738346e-01   2.441526e-02
   1.739232e-01   1.123102e-01
   1.740118e-01   8.301187e-02
   1.741005e-01   2.441526e-02
   1.741891e-01   0.000000e+00
   1.742778e-01  -4.883051e-03
   1.743664e-01   1.562576e-01
   1.744550e-01   4.883051e-02
   1.745437e-01   6.347966e-02
   1.746323e-01   1.171932e-01
   1.747210e-01  -3.418136e-02
   1.748096e-01   8.789492e-02
   1.748982e-01   9.766102e-03
   1.749869e-01   3.906441e-02
   1.750755e-01   7.812882e-02
   1.751642e-01   5.859661e-02
   1.752528e-01   9.766102e-03
   1.753414e-01  -9.766102e-03
   1.754301e-01   2.929831e-02
   1.755187e-01   8.301187e-02
   1.756074e-01   5.371356e-02
   1.756960e-01  -8.301187e-02
   1.757846e-01   4.883051e-03
   1.758733e-01   6.347966e-02
   1.759619e-01   3.418136e-02
   1.760506e-01  -1.464915e-02
   1.761392e-01   1.123102e-01
   1.762278e-01  -1.953220e-02
   1.763165e-01  -1.953220e-02
   1.764051e-01   3.906441e-02
   1.764938e-01   1.025441e-01
   1.765824e-01   3.906441e-02
   1.766710e-01   1.953220e-02
   1.767597e-01   3.906441e-02
   1.768483e-01  -4.883051e-02
   1.769370e-01   8.301187e-02
   1.770256e-01   8.301187e-02
   1.771142e-01   7.324576e-02
   1.772029e-01   1.220763e-01
   1.772915e-01   1.416085e-01
   1.773802e-01   5.371356e-02
   1.774688e-01   1.367254e-01
   1.775574e-01   2.929831e-02
   1.776461e-01  -4.394746e-02
   1.777347e-01   7.324576e-02
   1.778234e-01   3.418136e-02
   1.779120e-01  -9.766102e-02
   1.780006e-01   2.929831e-02
   1.780893e-01  -1.953220e-02
   1.781779e-01   0.000000e+00
   1.782666e-01   5.371356e-02
   1.783552e-01   6.836271e-02
   1.784438e-01   4.883051e-03
   1.785325e-01  -9.766102e-03
   1.786211e-01  -2.929831e-02
   1.787098e-01   1.025441e-01
   1.787984e-01  -4.883051e-03
   1.788870e-01  -5.859661e-02
   1.789757e-01   3.906441e-02
   1.790643e-01  -4.883051e-02
   1.791530e-01   0.000000e+00
   1.792416e-01   3.906441e-02
   1.793302e-01   4.883051e-02
   1.794189e-01  -2.929831e-02
   1.795075e-01   3.906441e-02
   1.795962e-01   3.906441e-02
   1.796848e-01   4.883051e-03
   1.797734e-01  -4.883051e-03
   1.798621e-01   4.883051e-02
   1.799507e-01   6.836271e-02
   1.800394e-01   4.883051e-02
   1.801280e-01  -2.441526e-02
   1.802166e-01   1.806729e-01
   1.803053e-01  -2.929831e-02
   1.803939e-01  -9.766102e-03
   1.804826e-01   2.929831e-02
   1.805712e-01   5.859661e-02
   1.806598e-01  -1.953220e-02
   1.807485e-01  -2.929831e-02
   1.808371e-01   7.812882e-02
   1.809258e-01   4.883051e-02
   1.810144e-01   4.883051e-03
   1.811030e-01  -5.859661e-02
   1.811917e-01   1.074271e-01
   1.812803e-01  -3.906441e-02
   1.813690e-01   8.301187e-02
   1.814576e-01   4.883051e-02
   1.815462e-01  -7.812882e-02

